nanotube2.xyz
 OpenBabel07032223033D

 88 20  0  0  1  0  0  0  0  0999 V2000
   15.0409   10.1978  -31.1817 O   0  0  0  0  0 15  0  0  0  0  0  0
  -44.0479   37.7235   -4.2473 O   0  0  0  0  0 15  0  0  0  0  0  0
   30.1169   20.2591  -14.6407 O   0  0  0  0  0 15  0  0  0  0  0  0
  -37.3916  -19.2798   -2.8906 O   0  0  0  0  0 15  0  0  0  0  0  0
  -49.9183   19.0656  -10.3643 O   0  0  0  0  0 15  0  0  0  0  0  0
  -37.2632   29.4913  -39.2966 O   0  0  0  0  0 15  0  0  0  0  0  0
   30.8695    0.0083  -26.7749 Si  0  0  0  0  0 15  0  0  0  0  0  0
  -19.5947  -43.3357   21.3113 Si  0  0  0  0  0 15  0  0  0  0  0  0
   -4.5134  -18.3385   32.4371 O   0  0  0  0  0 15  0  0  0  0  0  0
  -10.6822   37.7827  -37.8548 O   0  0  0  0  0 15  0  0  0  0  0  0
  -26.2186  -25.1940   16.7095 O   0  0  0  0  0 15  0  0  0  0  0  0
   15.5999   -2.3424  -15.4246 O   0  0  0  0  0 15  0  0  0  0  0  0
  -51.0300   10.7494   -8.6211 O   0  0  0  0  0 15  0  0  0  0  0  0
  -27.7657  -36.2133   -6.5236 O   0  0  0  0  0 15  0  0  0  0  0  0
    6.6910   20.0437   10.9306 O   0  0  0  0  0 15  0  0  0  0  0  0
   30.4962   21.6511  -47.6863 O   0  0  0  0  0 15  0  0  0  0  0  0
  -14.9483  -68.6783   10.8363 O   0  0  0  0  0 15  0  0  0  0  0  0
  -13.6192  -11.7059   -6.3431 O   0  0  0  0  0 15  0  0  0  0  0  0
  -40.2590   -7.9109  -18.9644 O   0  0  0  0  0 15  0  0  0  0  0  0
   -8.8472  -31.0016   21.4115 O   0  0  0  0  0 15  0  0  0  0  0  0
   -9.4049   -8.5466   -2.0862 O   0  0  0  0  0 15  0  0  0  0  0  0
  -13.9477  -14.4667   13.1613 O   0  0  0  0  0 15  0  0  0  0  0  0
   -5.0754  -39.5599  -32.6872 O   0  0  0  0  0 15  0  0  0  0  0  0
   28.3799   25.4092    8.4253 O   0  0  0  0  0 15  0  0  0  0  0  0
   11.2217   20.9505  -31.7884 O   0  0  0  0  0 15  0  0  0  0  0  0
    3.0979  -78.9986  -22.5742 O   0  0  0  0  0 15  0  0  0  0  0  0
  -13.6500  -15.5288  -32.1871 O   0  0  0  0  0 15  0  0  0  0  0  0
  -49.6256    6.9340    4.2402 O   0  0  0  0  0 15  0  0  0  0  0  0
   49.6136  -27.5754  -14.6708 O   0  0  0  0  0 15  0  0  0  0  0  0
  -27.8462    9.8423  -35.2160 O   0  0  0  0  0 15  0  0  0  0  0  0
   21.2419   22.9282  -15.0643 O   0  0  0  0  0 15  0  0  0  0  0  0
    9.7491   10.3453  -22.3270 O   0  0  0  0  0 15  0  0  0  0  0  0
   15.1904   34.7131   14.8111 O   0  0  0  0  0 15  0  0  0  0  0  0
   -4.3504   15.8917  -11.5052 O   0  0  0  0  0 15  0  0  0  0  0  0
   23.1951  -17.1678  -39.6988 O   0  0  0  0  0 15  0  0  0  0  0  0
  -21.5468   10.9096  -39.9832 O   0  0  0  0  0 15  0  0  0  0  0  0
  -50.4581   19.0674   17.5844 O   0  0  0  0  0 15  0  0  0  0  0  0
   51.8750  -34.9185  -11.4735 O   0  0  0  0  0 15  0  0  0  0  0  0
  -24.0470  -14.4737  -21.0567 O   0  0  0  0  0 15  0  0  0  0  0  0
   33.1977   31.5360   -5.0861 O   0  0  0  0  0 15  0  0  0  0  0  0
   14.3233   -5.7241  -18.2318 O   0  0  0  0  0 15  0  0  0  0  0  0
   42.0025  -23.3707   39.6371 O   0  0  0  0  0 15  0  0  0  0  0  0
  -19.4374   10.2012  -21.5200 O   0  0  0  0  0 15  0  0  0  0  0  0
   16.2143   28.9938  -31.2137 O   0  0  0  0  0 15  0  0  0  0  0  0
  -17.3733   33.0355   -7.6177 O   0  0  0  0  0 15  0  0  0  0  0  0
  -61.2393    7.8006   32.2915 O   0  0  0  0  0 15  0  0  0  0  0  0
   57.8131  -21.4597  -10.3071 O   0  0  0  0  0 15  0  0  0  0  0  0
    3.2424  -27.4546   -0.9755 O   0  0  0  0  0 15  0  0  0  0  0  0
    6.9524  -41.4468   14.3514 O   0  0  0  0  0 15  0  0  0  0  0  0
    2.1388   21.2086   40.3268 O   0  0  0  0  0 15  0  0  0  0  0  0
  -16.8057   11.7420  -16.5803 Si  0  0  0  0  0 15  0  0  0  0  0  0
   -8.0899   18.8944   44.9974 Si  0  0  0  0  0 15  0  0  0  0  0  0
  -14.1945    3.0759   -5.5344 Si  0  0  0  0  0 15  0  0  0  0  0  0
   21.8294   10.9961   26.2279 Si  0  0  0  0  0 15  0  0  0  0  0  0
  -10.9153   -8.5061   34.7164 Si  0  0  0  0  0 15  0  0  0  0  0  0
   56.9427    8.0730  -28.4930 Si  0  0  0  0  0 15  0  0  0  0  0  0
    4.8769  -26.6312  -13.8719 Si  0  0  0  0  0 15  0  0  0  0  0  0
   -9.6351  -27.6694   12.5718 Si  0  0  0  0  0 15  0  0  0  0  0  0
    8.8660   38.4958   30.1432 Si  0  0  0  0  0 15  0  0  0  0  0  0
   -4.9787  -15.6629  -46.7542 Si  0  0  0  0  0 15  0  0  0  0  0  0
   -9.5550  -36.7978   12.6446 Si  0  0  0  0  0 15  0  0  0  0  0  0
   23.1934   38.7861   11.7536 Si  0  0  0  0  0 15  0  0  0  0  0  0
   -1.4708   21.7249  -47.1468 Si  0  0  0  0  0 15  0  0  0  0  0  0
   56.7229  -13.4748    7.0254 Si  0  0  0  0  0 15  0  0  0  0  0  0
   -9.9068   15.1020    5.8072 Si  0  0  0  0  0 15  0  0  0  0  0  0
  -10.9395   -1.7334  -45.9629 Si  0  0  0  0  0 15  0  0  0  0  0  0
  -14.6720  -28.8443   -1.4112 Si  0  0  0  0  0 15  0  0  0  0  0  0
   13.5567   25.9869   -4.5657 Si  0  0  0  0  0 15  0  0  0  0  0  0
   12.3866  -15.6408   -0.8313 Si  0  0  0  0  0 15  0  0  0  0  0  0
  -11.9735  -29.7349  -15.2053 Si  0  0  0  0  0 15  0  0  0  0  0  0
  -10.6824  -39.6127   16.5185 Si  0  0  0  0  0 15  0  0  0  0  0  0
   10.6649   -0.8934   40.8396 Si  0  0  0  0  0 15  0  0  0  0  0  0
    4.4173   11.6396   22.9807 C   0  0  0  0  0  2  0  0  0  0  0  0
    5.1823   10.4229   23.0873 C   0  0  2  0  0  3  0  0  0  0  0  0
    5.5033   10.3994   24.8930 C   0  0  0  0  0  2  0  0  0  0  0  0
    6.7010   11.6544   25.3459 C   0  0  2  0  0  3  0  0  0  0  0  0
    6.5708   12.4768   26.5268 C   0  0  0  0  0  2  0  0  0  0  0  0
    7.1494   13.4697   25.6571 C   0  0  2  0  0  3  0  0  0  0  0  0
    5.7905   13.6659   24.4407 C   0  0  0  0  0  2  0  0  0  0  0  0
    5.6763   12.2304   23.3727 C   0  0  1  0  0  3  0  0  0  0  0  0
    7.6272    9.7687   22.3153 C   0  0  0  0  0  2  0  0  0  0  0  0
    6.6081   10.6764   21.8522 C   0  0  2  0  0  3  0  0  0  0  0  0
    7.5579   12.2454   21.8309 C   0  0  0  0  0  2  0  0  0  0  0  0
    7.8701   12.8265   23.4979 C   0  0  2  0  0  3  0  0  0  0  0  0
    9.1364   13.3854   23.9119 C   0  0  0  0  0  2  0  0  0  0  0  0
    8.8118   12.7016   25.1382 C   0  0  2  0  0  3  0  0  0  0  0  0
    8.8997   10.9596   24.5703 C   0  0  0  0  0  2  0  0  0  0  0  0
    7.5040   10.5590   23.5185 C   0  0  1  0  0  3  0  0  0  0  0  0
 73 80  1  0  0  0  0
 73 74  1  0  0  0  0
 74 75  1  1  0  0  0
 74 82  1  0  0  0  0
 75 76  1  0  0  0  0
 76 77  1  6  0  0  0
 76 84  1  0  0  0  0
 78 77  1  1  0  0  0
 78 86  1  0  0  0  0
 79 78  1  0  0  0  0
 80 79  1  1  0  0  0
 80 88  1  0  0  0  0
 82 83  1  1  0  0  0
 82 81  1  0  0  0  0
 84 85  1  1  0  0  0
 84 83  1  0  0  0  0
 86 85  1  6  0  0  0
 86 87  1  0  0  0  0
 88 87  1  6  0  0  0
 88 81  1  0  0  0  0
M  END
