
 OpenBabel07022220123D

 76 75  0  0  1  0  0  0  0  0999 V2000
    1.2246  -23.7916    8.2938 N   0  0  0  0  0  0  0  0  0  0  0  0
    1.5736  -23.0832    9.5510 C   0  0  1  0  0  0  0  0  0  0  0  0
    0.7903  -22.3462    9.7619 H   0  0  0  0  0  0  0  0  0  0  0  0
    1.6615  -24.0718   10.7116 C   0  0  0  0  0  0  0  0  0  0  0  0
    2.8949  -22.3182    9.3676 C   0  0  0  0  0  0  0  0  0  0  0  0
    3.6720  -22.0543   10.2859 O   0  0  0  0  0  0  0  0  0  0  0  0
    3.1350  -21.9247    8.0534 N   0  0  0  0  0  0  0  0  0  0  0  0
    4.3697  -21.2760    7.6458 C   0  0  1  0  0  0  0  0  0  0  0  0
    5.1562  -21.6037    8.3420 H   0  0  0  0  0  0  0  0  0  0  0  0
    4.8480  -21.5701    6.2315 C   0  0  2  0  0  0  0  0  0  0  0  0
    5.7277  -20.9475    6.0188 H   0  0  0  0  0  0  0  0  0  0  0  0
    3.8302  -21.2231    5.2823 O   0  0  0  0  0  0  0  0  0  0  0  0
    5.2116  -23.0325    6.0893 C   0  0  0  0  0  0  0  0  0  0  0  0
    4.2923  -19.7714    7.8161 C   0  0  0  0  0  0  0  0  0  0  0  0
    4.8311  -19.3191    8.8273 O   0  0  0  0  0  0  0  0  0  0  0  0
    3.6031  -19.0400    6.8656 N   0  0  0  0  0  0  0  0  0  0  0  0
    3.4025  -17.5829    6.8193 C   0  0  0  0  0  0  0  0  0  0  0  0
    1.9544  -17.1596    7.1963 C   0  0  0  0  0  0  0  0  0  0  0  0
    1.5281  -17.0138    8.3483 O   0  0  0  0  0  0  0  0  0  0  0  0
    1.0812  -17.0211    6.1359 N   0  0  0  0  0  0  0  0  0  0  0  0
   -0.3274  -16.7353    6.3723 C   0  0  0  0  0  0  0  0  0  0  0  0
   -0.5529  -15.3303    6.9665 C   0  0  0  0  0  0  0  0  0  0  0  0
   -0.5772  -14.3195    6.2698 O   0  0  0  0  0  0  0  0  0  0  0  0
   -0.6539  -15.3162    8.3445 N   0  0  0  0  0  0  0  0  0  0  0  0
   -0.7508  -14.0763    9.1419 C   0  0  1  0  0  0  0  0  0  0  0  0
    0.1295  -13.4629    8.9047 H   0  0  0  0  0  0  0  0  0  0  0  0
   -2.0216  -13.2645    8.8129 C   0  0  0  0  0  0  0  0  0  0  0  0
   -3.5796  -14.1785    9.1411 S   0  0  0  0  0  0  0  0  0  0  0  0
   -0.6780  -14.3555   10.6682 C   0  0  0  0  0  0  0  0  0  0  0  0
   -1.1817  -13.5986   11.5189 O   0  0  0  0  0  0  0  0  0  0  0  0
    0.0842  -15.4388   11.0568 N   0  0  0  0  0  0  0  0  0  0  0  0
    0.1939  -15.8674   12.4679 C   0  0  1  0  0  0  0  0  0  0  0  0
    0.1761  -14.9705   13.1000 H   0  0  0  0  0  0  0  0  0  0  0  0
   -0.9809  -16.7909   12.8958 C   0  0  2  0  0  0  0  0  0  0  0  0
   -1.9173  -16.2340   12.7813 H   0  0  0  0  0  0  0  0  0  0  0  0
   -0.8952  -17.1354   14.2794 O   0  0  0  0  0  0  0  0  0  0  0  0
   -1.0804  -18.0707   12.0667 C   0  0  0  0  0  0  0  0  0  0  0  0
    1.5547  -16.5338   12.7685 C   0  0  0  0  0  0  0  0  0  0  0  0
    1.8791  -16.9681   13.8676 O   0  0  0  0  0  0  0  0  0  0  0  0
    2.4204  -16.6238   11.7151 N   0  0  0  0  0  0  0  0  0  0  0  0
    3.7340  -17.2317   11.8551 C   0  0  1  0  0  0  0  0  0  0  0  0
    4.2964  -16.7045   12.6397 H   0  0  0  0  0  0  0  0  0  0  0  0
    3.6621  -18.7278   12.1585 C   0  0  0  0  0  0  0  0  0  0  0  0
    4.3761  -16.9242   10.5226 C   0  0  0  0  0  0  0  0  0  0  0  0
    5.0980  -15.9808   10.2626 O   0  0  0  0  0  0  0  0  0  0  0  0
    3.6958  -17.5685    9.5714 O   0  0  0  0  0  0  0  0  0  0  0  0
    0.4634  -24.4439    8.4909 H   0  0  0  0  0  0  0  0  0  0  0  0
    2.0171  -24.3839    8.0357 H   0  0  0  0  0  0  0  0  0  0  0  0
    0.7394  -24.6562   10.8112 H   0  0  0  0  0  0  0  0  0  0  0  0
    1.8207  -23.5478   11.6610 H   0  0  0  0  0  0  0  0  0  0  0  0
    2.4946  -24.7722   10.5793 H   0  0  0  0  0  0  0  0  0  0  0  0
    2.4064  -22.1338    7.3660 H   0  0  0  0  0  0  0  0  0  0  0  0
    4.2547  -21.2427    4.4044 H   0  0  0  0  0  0  0  0  0  0  0  0
    5.6129  -23.2234    5.0919 H   0  0  0  0  0  0  0  0  0  0  0  0
    4.3249  -23.6616    6.2140 H   0  0  0  0  0  0  0  0  0  0  0  0
    5.9595  -23.3257    6.8347 H   0  0  0  0  0  0  0  0  0  0  0  0
    3.2785  -19.5682    6.0577 H   0  0  0  0  0  0  0  0  0  0  0  0
    3.6034  -17.2566    5.7903 H   0  0  0  0  0  0  0  0  0  0  0  0
    4.1313  -17.0485    7.4341 H   0  0  0  0  0  0  0  0  0  0  0  0
    1.3842  -17.2130    5.1899 H   0  0  0  0  0  0  0  0  0  0  0  0
   -0.7524  -17.5003    7.0328 H   0  0  0  0  0  0  0  0  0  0  0  0
   -0.8513  -16.7908    5.4127 H   0  0  0  0  0  0  0  0  0  0  0  0
   -0.2804  -16.1487    8.7863 H   0  0  0  0  0  0  0  0  0  0  0  0
   -2.0370  -12.9875    7.7547 H   0  0  0  0  0  0  0  0  0  0  0  0
   -2.0527  -12.3295    9.3816 H   0  0  0  0  0  0  0  0  0  0  0  0
   -3.0613  -15.4110    9.0458 H   0  0  0  0  0  0  0  0  0  0  0  0
    0.5635  -15.9906   10.3591 H   0  0  0  0  0  0  0  0  0  0  0  0
   -1.7149  -17.5805   14.5481 H   0  0  0  0  0  0  0  0  0  0  0  0
   -1.9833  -18.6290   12.3399 H   0  0  0  0  0  0  0  0  0  0  0  0
   -0.2348  -18.7408   12.2537 H   0  0  0  0  0  0  0  0  0  0  0  0
   -1.1316  -17.8553   10.9950 H   0  0  0  0  0  0  0  0  0  0  0  0
    2.2965  -16.0032   10.9110 H   0  0  0  0  0  0  0  0  0  0  0  0
    3.2186  -18.9075   13.1373 H   0  0  0  0  0  0  0  0  0  0  0  0
    4.6562  -19.1817   12.1392 H   0  0  0  0  0  0  0  0  0  0  0  0
    3.0336  -19.2738   11.4379 H   0  0  0  0  0  0  0  0  0  0  0  0
    3.8208  -18.5418    9.6963 H   0  0  0  0  0  0  0  0  0  0  0  0
  1  2  1  0  0  0  0
  1 47  1  0  0  0  0
  1 48  1  0  0  0  0
  2  3  1  1  0  0  0
  2  4  1  0  0  0  0
  2  5  1  0  0  0  0
  4 49  1  0  0  0  0
  4 50  1  0  0  0  0
  4 51  1  0  0  0  0
  5  6  2  0  0  0  0
  5  7  1  0  0  0  0
  7  8  1  0  0  0  0
  7 52  1  0  0  0  0
  8  9  1  1  0  0  0
  8 14  1  0  0  0  0
 10 12  1  0  0  0  0
 10 13  1  0  0  0  0
 10 11  1  6  0  0  0
 10  8  1  0  0  0  0
 12 53  1  0  0  0  0
 13 54  1  0  0  0  0
 13 55  1  0  0  0  0
 13 56  1  0  0  0  0
 14 15  2  0  0  0  0
 14 16  1  0  0  0  0
 16 17  1  0  0  0  0
 16 57  1  0  0  0  0
 17 18  1  0  0  0  0
 17 58  1  0  0  0  0
 17 59  1  0  0  0  0
 18 19  2  0  0  0  0
 18 20  1  0  0  0  0
 20 21  1  0  0  0  0
 20 60  1  0  0  0  0
 21 22  1  0  0  0  0
 21 61  1  0  0  0  0
 21 62  1  0  0  0  0
 22 23  2  0  0  0  0
 22 24  1  0  0  0  0
 24 25  1  0  0  0  0
 24 63  1  0  0  0  0
 25 26  1  6  0  0  0
 25 27  1  0  0  0  0
 25 29  1  0  0  0  0
 27 28  1  0  0  0  0
 27 64  1  0  0  0  0
 27 65  1  0  0  0  0
 28 66  1  0  0  0  0
 29 30  2  0  0  0  0
 29 31  1  0  0  0  0
 31 32  1  0  0  0  0
 31 67  1  0  0  0  0
 32 33  1  1  0  0  0
 32 38  1  0  0  0  0
 34 36  1  0  0  0  0
 34 37  1  0  0  0  0
 34 35  1  6  0  0  0
 34 32  1  0  0  0  0
 36 68  1  0  0  0  0
 37 69  1  0  0  0  0
 37 70  1  0  0  0  0
 37 71  1  0  0  0  0
 38 39  2  0  0  0  0
 38 40  1  0  0  0  0
 40 41  1  0  0  0  0
 40 72  1  0  0  0  0
 41 42  1  1  0  0  0
 41 43  1  0  0  0  0
 41 44  1  0  0  0  0
 43 73  1  0  0  0  0
 43 74  1  0  0  0  0
 43 75  1  0  0  0  0
 44 45  2  0  0  0  0
 44 46  1  0  0  0  0
 46 76  1  0  0  0  0
M  END
